C6H4Cl2
APtclcactv06282111283D 0   0.00000     0.00000
 
 12 12  0  0  0  0  0  0  0  0999 V2000
   -2.7015    0.8240   -0.0003 Cl  0  0  0  0  0  0  0  0  0  0  0  0
   -1.1978   -0.0435   -0.0009 C   0  0  0  0  0  0  0  0  0  0  0  0
   -0.0000    0.6484   -0.0005 C   0  0  0  0  0  0  0  0  0  0  0  0
    1.1978   -0.0435   -0.0006 C   0  0  0  0  0  0  0  0  0  0  0  0
    2.7015    0.8240    0.0005 Cl  0  0  0  0  0  0  0  0  0  0  0  0
    1.1972   -1.4271   -0.0011 C   0  0  0  0  0  0  0  0  0  0  0  0
    0.0000   -2.1179   -0.0015 C   0  0  0  0  0  0  0  0  0  0  0  0
   -1.1972   -1.4271    0.0038 C   0  0  0  0  0  0  0  0  0  0  0  0
   -0.0000    1.7284   -0.0005 H   0  0  0  0  0  0  0  0  0  0  0  0
    2.1323   -1.9674   -0.0015 H   0  0  0  0  0  0  0  0  0  0  0  0
    0.0000   -3.1979   -0.0023 H   0  0  0  0  0  0  0  0  0  0  0  0
   -2.1323   -1.9674    0.0035 H   0  0  0  0  0  0  0  0  0  0  0  0
  1  2  1  0  0  0  0
  2  3  2  0  0  0  0
  3  4  1  0  0  0  0
  4  5  1  0  0  0  0
  4  6  2  0  0  0  0
  6  7  1  0  0  0  0
  7  8  2  0  0  0  0
  2  8  1  0  0  0  0
  3  9  1  0  0  0  0
  6 10  1  0  0  0  0
  7 11  1  0  0  0  0
  8 12  1  0  0  0  0
M  END
$$$$
